
#======================================================================
# CRYSTAL DATA
#----------------------------------------------------------------------
data_VESTA_phase_1

_chemical_name_common                  'New structure'
_cell_length_a                         15.160000
_cell_length_b                         15.160000
_cell_length_c                         3.251000
_cell_angle_alpha                      90.000000
_cell_angle_beta                       90.000000
_cell_angle_gamma                      90.000000
_cell_volume                           747.162994
_space_group_name_H-M_alt              'P m m m'
_space_group_IT_number                 47

loop_
_space_group_symop_operation_xyz
   'x, y, z'
   '-x, -y, -z'
   '-x, -y, z'
   'x, y, -z'
   '-x, y, -z'
   'x, -y, z'
   'x, -y, -z'
   '-x, y, z'

loop_
   _atom_site_label
   _atom_site_occupancy
   _atom_site_fract_x
   _atom_site_fract_y
   _atom_site_fract_z
   _atom_site_adp_type
   _atom_site_B_iso_or_equiv
   _atom_site_type_symbol
   Ca        1.0     0.625000     0.625000     0.500000    Biso  1.000000 Ca
   Co         1.0     0.000000     0.000000     0.000000    Biso  1.000000 Co
   Co         1.0     0.500000     0.500000     0.000000    Biso  1.000000 Co
   Co         1.0     0.000000     0.500000     0.000000    Biso  1.000000 Co
   O          1.0     0.125000     0.000000     0.000000    Biso  1.000000 O
   O2         1.0     0.000000     0.125000     0.000000    Biso  1.000000 O
   O3         1.0     0.250000     0.125000     0.000000    Biso  1.000000 O
   O3         1.0     0.125000     0.250000     0.000000    Biso  1.000000 O
   O2         1.0     0.375000     0.000000     0.000000    Biso  1.000000 O
   Ca         1.0     0.875000     0.875000     0.500000    Biso  1.000000 Ca
   Co         1.0     0.250000     0.250000     0.000000    Biso  1.000000 Co
   Co2        1.0     0.250000     0.000000     0.000000    Biso  1.000000 Co
   Co2        1.0     0.000000     0.250000     0.000000    Biso  1.000000 Co
   Co2        1.0     0.250000     0.500000     0.000000    Biso  1.000000 Co
   Co         1.0     0.500000     0.000000     0.000000    Biso  1.000000 Co
   Co2        1.0     0.500000     0.250000     0.000000    Biso  1.000000 Co
   Ca         1.0     0.375000     0.125000     0.500000    Biso  1.000000 Ca
   Ca         1.0     0.125000     0.375000     0.500000    Biso  1.000000 Ca
   O          1.0     0.000000     0.375000     0.000000    Biso  1.000000 O
   O2         1.0     0.125000     0.500000     0.000000    Biso  1.000000 O
   O          1.0     0.500000     0.125000     0.000000    Biso  1.000000 O
   O3         1.0     0.375000     0.250000     0.000000    Biso  1.000000 O
   O3        1.0     0.250000     0.375000     0.000000    Biso  1.000000 O
   O2         1.0     0.500000     0.375000     0.000000    Biso  1.000000 O
   O          1.0     0.375000     0.500000     0.000000    Biso  1.000000 O
